case418.m
%                                                                       JMJ
% SISTEMA DE 418 BARRAS (JUNÇÃO DO 300 COM O 118 DO IEEE)

function mpc = case418

%% MATPOWER Case Format : Version 2
mpc.version = '2';


%% System MVA base
mpc.baseMVA = 100;


%% bus data
% OBS: 1) Bs      ==> NÃ£o precisarÃ¡ dividir por 2 dentro do cÃ³digo
%      2) Área    ==> número da área do sistema
%      3) ctrl    ==> Define se o gerador (PV) pertence (1) ou não (0) do controle de potência ativa (controle de intercâmbio)
%      4) Tipo   ==> 3 - SLack, 2 - PV, 1, PQ

mpc.bus = [
%         bus_i        type	        Pd           Qd           Gs         Bs/2           area	  Vm             Va           baseKV        ctrl        Vmax         Vmin           PG           QG       Qmim          Qmax
            1            1           90           49            0            0            1       1.0284         5.95          115            0         1.06         0.94            0            0       -99999        99999;
            2            1           56           15            0            0            1       1.0354         7.74          115            0         1.06         0.94            0            0       -99999        99999;
            3            1           20            0            0            0            1       0.9971         6.64          230            0         1.06         0.94            0            0       -99999        99999;
            4            1            0            0            0            0            1       1.0308         4.71          345            0         1.06         0.94            0            0       -99999        99999;
            5            1          353          130            0            0            1       1.0191         4.68          115            0         1.06         0.94            0            0       -99999        99999;
            6            1          120           41            0            0            1       1.0312         6.99          115            0         1.06         0.94            0            0       -99999        99999;
            7            1            0            0            0            0            1       0.9934         6.19          230            0         1.06         0.94            0            0       -99999        99999;
            8            2           55           14            0            0            1       1.0153          2.4          115            0         1.06         0.94            0            0       -99999        99999;
            9            1           96           43            0            0            1       1.0034         2.85          115            0         1.06         0.94            0            0       -99999        99999;
           10            2          153           33            0            0            1       1.0205         1.35          230            0         1.06         0.94            0            0       -99999        99999;          
           11            1           83           21            0            0            1       1.0057         2.46          115            0         1.06         0.94            0            0       -99999        99999;
           12            1            0            0            0            0            1       0.9974         5.21          230            0         1.06         0.94            0            0       -99999        99999;
           13            1           58           10            0            0            1       0.9977        -0.55          115            0         1.06         0.94            0            0       -99999        99999;
           14            1          160           60            0            0            1       0.9991        -4.81          115            0         1.06         0.94            0            0       -99999        99999;
           15            1        126.7           23            0            0            1       1.0343        -8.59          115            0         1.06         0.94            0            0       -99999        99999;
           16            1            0            0            0            0            1       1.0315        -2.65          345            0         1.06         0.94            0            0       -99999        99999;
           17            1          561          220            0            0            1       1.0649        -13.1          115            0         1.06         0.94            0            0       -99999        99999;
           18            1            0            0            0            0            1        0.982         1.08          230            0         1.06         0.94            0            0       -99999        99999;
           19            2          595          120            0            0            1        1.001        -2.46          115            0         1.06         0.94            0            0       -99999        99999;
           20            1           77            1            0            0            1       0.9752         1.62          230            0         1.06         0.94            0            0       -99999        99999;         
           21            1           81           23            0            0            1       0.9963        -1.97          115            0         1.06         0.94            0            0       -99999        99999;
           22            1           21            7            0            0            1       1.0501         3.94          115            0         1.06         0.94            0            0       -99999        99999;
           23            1            0            0            0            0            1       1.0057         6.02          230            0         1.06         0.94            0            0       -99999        99999;
           24            1           45           12            0            0            1       1.0234         1.44          115            0         1.06         0.94            0            0       -99999        99999;
           25            1           28            9            0            0            1       0.9986        -1.73          115            0         1.06         0.94            0            0       -99999        99999;
           26            1           69           13            0            0            1        0.975         -4.9          115            0         1.06         0.94            0            0       -99999        99999;
           27            1           55            6            0            0            1       1.0244       -12.02          115            0         1.06         0.94            0            0       -99999        99999;
           28            1            0            0            0            0            1       1.0414        -7.94          345            0         1.06         0.94            0            0       -99999        99999;
           29            1            0            0            0            0            1       0.9757       -25.72          115            0         1.06         0.94            0            0       -99999        99999;
           30            1            0            0            0            0            1       1.0011       -22.59          230            0         1.06         0.94            0            0       -99999        99999;
           31            1           85           32            0            0            1       1.0201       -11.23          115            0         1.06         0.94            0            0       -99999        99999;
           32            1          155           18            0            0            1       1.0202       -12.56          115            0         1.06         0.94            0            0       -99999        99999;
           33            1            0            0            0            0            1       1.0535        -5.81          345            0         1.06         0.94            0            0       -99999        99999;
           34            1           46          -21            0            0            1       1.0216       -12.78          115            0         1.06         0.94            0            0       -99999        99999;
           35            1           86            0            0            0            1       1.0292       -10.45          115            0         1.06         0.94            0            0       -99999        99999;
           36            1            0            0            0            0            1       1.0448        -7.44          345            0         1.06         0.94            0            0       -99999        99999;
           37            1           39            9            0            0            1       1.0006       -16.79          115            0         1.06         0.94            0            0       -99999        99999;
           38            1          195           29            0            0            1       1.0086       -17.47          115            0         1.06         0.94            0            0       -99999        99999;
           39            1            0            0            0            0            1       1.0215       -14.74          230            0         1.06         0.94            0            0       -99999        99999;
           40            1            0            0            0            0            1       1.0344       -11.75          345            0         1.06         0.94            0            0       -99999        99999;
           41            1           58         11.8            0            0            1       0.9777       -23.17          115            0         1.06         0.94            0            0       -99999        99999;
           42            1           41           19            0            0            1       1.0019       -16.09          115            0         1.06         0.94            0            0       -99999        99999;
           43            1           92           26            0            0            1       1.0475        -2.95          115            0         1.06         0.94            0            0       -99999        99999;
           44            1           -5            5            0            0            1       1.0253        -8.15          115            0         1.06         0.94            0            0       -99999        99999;
           45            1           61           28            0            0            1       0.9979       -11.86          115            0         1.06         0.94            0            0       -99999        99999;
           46            1           69            3            0            0            1       0.9959        -17.6          115            0         1.06         0.94            0            0       -99999        99999;
           47            1           10            1            0            0            1        1.005       -16.25          115            0         1.06         0.94            0            0       -99999        99999;
           48            1           22           10            0            0            1        1.015       -12.21          115            0         1.06         0.94            0            0       -99999        99999;
           49            1           98           20            0            0            1       1.0335           -8          115            0         1.06         0.94            0            0       -99999        99999;
           50            1           14            1            0            0            1       0.9918        -5.99          115            0         1.06         0.94            0            0       -99999        99999;
           51            1          218          106            0            0            1       0.9789        -5.29          115            0         1.06         0.94            0            0       -99999        99999;
           52            1            0            0            0            0            1       1.0246        -9.56          230            0         1.06         0.94            0            0       -99999        99999;
           53            1          227          110            0            0            1       0.9906        -3.47          115            0         1.06         0.94            0            0       -99999        99999;
           54            1            0            0            0            0            1        1.016         -1.1          230            0         1.06         0.94            0            0       -99999        99999;
           55            2           70           30            0            0            1       0.9583       -17.62          115            0         1.06         0.94            0            0       -99999        99999;
           56            1            0            0            0            0            1        0.948       -12.97          230            0         1.06         0.94            0            0       -99999        99999;
           57            1            0            0            0            0            1        0.963       -25.66          115            0         1.06         0.94            0            0       -99999        99999;
           58            1           56           20            0            0            1       0.9513       -35.16          115            0         1.06         0.94            0            0       -99999        99999;
           59            1          116           38            0            0            1       0.9793       -29.88          115            0         1.06         0.94            0            0       -99999        99999;
           60            1           57           19            0            0            1       0.9696       -27.48          115            0         1.06         0.94            0            0       -99999        99999;
           61            1          224           71            0            0            1       0.9775       -25.77          115            0         1.06         0.94            0            0       -99999        99999;
           62            1            0            0            0            0            1       0.9964          -22          230            0         1.06         0.94            0            0       -99999        99999;
           63            2          208          107            0            0            1       0.9632       -26.54          115            0         1.06         0.94            0            0       -99999        99999;
           64            1           74           28            0            0            1       0.9837       -24.94          115            0         1.06         0.94            0            0       -99999        99999;
           65            1            0            0            0            0            1         0.99       -24.05          115            0         1.06         0.94            0            0       -99999        99999;
           66            1           48           14            0            0            1        0.982       -24.97          115            0         1.06         0.94            0            0       -99999        99999;
           67            1           28            7            0            0            1       0.9872       -24.97          115            0         1.06         0.94            0            0       -99999        99999;
           68            1            0            0            0            0            1        1.034       -18.89          345            0         1.06         0.94            0            0       -99999        99999;
           69            2           37           13            0            0            1        1.025       -17.16          115            0         1.06         0.94          375            0       -99999        99999;
           70            1            0            0            0            0            1       0.9872       -17.68          230            0         1.06         0.94            0            0       -99999        99999;
           71            1            0            0            0            0            1       0.9909       -14.19          230            0         1.06         0.94            0            0       -99999        99999;
           72            1            0            0            0            0            1       0.9921        -7.77          230            0         1.06         0.94            0            0       -99999        99999;
           73            1            0            0            0            0            1       1.0151       -20.96          230            0         1.06         0.94            0            0       -99999        99999;
           74            1         44.2            0            0            0            1       1.0317       -11.13          115            0         1.06         0.94            0            0       -99999        99999;
           75            1           66            0            0            0            1       1.0272       -11.23          115            0         1.06         0.94            0            0       -99999        99999;
           76            2         17.4            0            0            0            1        1.052         -9.4          115            0         1.06         0.94          155            0       -99999        99999;
           77            2         15.8            0            0            0            1        1.052         -6.2          115            0         1.06         0.94          290            0       -99999        99999;
           78            1         60.3            0            0            0            1        0.993        -9.42          115            0         1.06         0.94            0            0       -99999        99999;
           79            1         39.9            0            0            0            1       1.0183       -13.24          115            0         1.06         0.94            0            0       -99999        99999;
           80            2         66.7            0            0            0            1            1        -14.6          115            0         1.06         0.94           68            0       -99999        99999;
           81            1         83.5            0            0            0            1       0.9894       -20.27          115            0         1.06         0.94            0            0       -99999        99999;
           82            1            0            0            0            0            1        1.006       -14.45          115            0         1.06         0.94            0            0       -99999        99999;
           83            1         77.8            0            0            0            1       1.0008       -15.23          115            0         1.06         0.94            0            0       -99999        99999;
           84            1           32            0            0            0            1       1.0288       -12.06          115            0         1.06         0.94            0            0       -99999        99999;
           85            1          8.6            0            0            0            1       0.9958       -17.33          115            0         1.06         0.94            0            0       -99999        99999;
           86            1         49.6            0            0            0            1       1.0223       -12.94          115            0         1.06         0.94            0            0       -99999        99999;
           87            1          4.6            0            0            0            1       1.0095       -16.03          115            0         1.06         0.94            0            0       -99999        99999;
           88            2        112.1            0            0            0            1         0.99       -20.26          115            0         1.06         0.94          117            0       -99999        99999;
           89            1         30.7            0            0            0            1       0.9749       -26.06          115            0         1.06         0.94            0            0       -99999        99999;
           90            1           63            0            0            0            1        0.973       -24.72          115            0         1.06         0.94            0            0       -99999        99999;
           91            1         19.6            0            0            0            1       0.9725       -28.69          115            0         1.06         0.94            0            0       -99999        99999;
           92            1         26.2            0            0            0            1         0.97       -25.38          115            0         1.06         0.94            0            0       -99999        99999;
           93            1         18.2            0            0            0            1       0.9747       -28.59          115            0         1.06         0.94            0            0       -99999        99999;
           94            1            0            0            0            0            1       0.9603       -13.57          115            0         1.06         0.94            0            0       -99999        99999;
           95            1            0            0            0            0            1       1.0249       -12.69          115            0         1.06         0.94            0            0       -99999        99999;
           96            1            0            0            0          325            1       0.9348        -4.72          115            0         1.06         0.94            0            0       -99999        99999;
           97            1         14.1          650            0            0            1       0.9298        -4.12          115            0         1.06         0.94            0            0       -99999        99999;
           98            2            0            0            0            0            1       1.0435         5.17          115            0         1.06         0.94         1930            0       -99999        99999;
           99            1          777          215            0           55            1       0.9584        -8.77          115            0         1.06         0.94            0            0       -99999        99999;
          100            1          535           55            0            0            1       0.9871       -12.64          115            0         1.06         0.94            0            0       -99999        99999;
          101            1        229.1         11.8            0            0            1       0.9728       -14.36          115            0         1.06         0.94            0            0       -99999        99999;
          102            1           78          1.4            0            0            1       1.0006       -17.64          115            0         1.06         0.94            0            0       -99999        99999;
          103            2        276.4         59.3            0            0            1       1.0233       -13.49          115            0         1.06         0.94          240            0       -99999        99999;
          104            2        514.8         82.7            0            0            1       1.0103       -18.43          115            0         1.06         0.94            0            0       -99999        99999;
          105            1         57.9          5.1            0            0            1       0.9978       -12.86          115            0         1.06         0.94            0            0       -99999        99999;
          106            1        380.8           37            0            0            1       1.0001       -10.52          230            0         1.06         0.94            0            0       -99999        99999;
          107            1            0            0            0            0            1       1.0024        -4.78          230            0         1.06         0.94            0            0       -99999        99999;
          108            1            0            0            0            0            1       1.0028         -4.4          230            0         1.06         0.94            0            0       -99999        99999;
          109            1            0            0            0            0            1       1.0191         5.56          230            0         1.06         0.94            0            0       -99999        99999;
          110            1            0            0            0            0            1       0.9861         6.06          230            0         1.06         0.94            0            0       -99999        99999;
          111            1            0            0            0            0            1       1.0045         3.04          230            0         1.06         0.94            0            0       -99999        99999;
          112            1            0            0            0            0            1        1.002        -5.46          230            0         1.06         0.94            0            0       -99999        99999;
          113            1            0            0            0            0            1        1.022        -8.04          230            0         1.06         0.94            0            0       -99999        99999;
          114            1        169.2         41.6            0            0            1       1.0193        -6.76          230            0         1.06         0.94            0            0       -99999        99999;
          115            1         55.2         18.2            0            0            1       1.0476         1.54          230            0         1.06         0.94            0            0       -99999        99999;
          116            1        273.6         99.8            0            0            1       1.0471        -1.45          230            0         1.06         0.94            0            0       -99999        99999;
          117            2        826.7        135.2            0            0            1        1.055        -6.35          230            0         1.06         0.94            0            0       -99999        99999;
          118            1          595         83.3            0            0            1       1.0117        -3.57          115            0         1.06         0.94            0            0       -99999        99999;
          119            1        387.7        114.7            0            0            1        1.043        -3.44          230            0         1.06         0.94            0            0       -99999        99999;
          120            2          145           58            0            0            1        1.051         0.05          230            0         1.06         0.94          281            0       -99999        99999;
          121            1         56.5         24.5            0            0            1       1.0155        -2.77          230            0         1.06         0.94            0            0       -99999        99999;
          122            2         89.5         35.5            0            0            1       1.0435         4.03          230            0         1.06         0.94          696            0       -99999        99999;
          123            1            0            0            0            0            1        1.016         -0.7          230            0         1.06         0.94            0            0       -99999        99999;
          124            1           24           14            0            0            1       1.0081        -0.16          230            0         1.06         0.94            0            0       -99999        99999;
          125            2            0            0            0            0            1       1.0528         4.32          230            0         1.06         0.94           84            0       -99999        99999;
          126            2            0            0            0            0            1       1.0528         8.36          230            0         1.06         0.94          217            0       -99999        99999;
          127            1           63           25            0            0            1       1.0577         0.28          230            0         1.06         0.94            0            0       -99999        99999;
          128            2            0            0            0            0            1       1.0735         5.23          230            0         1.06         0.94          103            0       -99999        99999;
          129            1            0            0            0            0            1       0.9869         6.34          230            0         1.06         0.94            0            0       -99999        99999;
          130            1            0            0            0            0            1       1.0048         4.13          230            0         1.06         0.94            0            0       -99999        99999;
          131            2           17            9            0            0            1       1.0535         9.24          230            0         1.06         0.94          372            0       -99999        99999;
          132            2            0            0            0            0            1       1.0435        10.46          230            0         1.06         0.94          216            0       -99999        99999;
          133            1           70            5            0         34.5            1       0.9663         -1.8          115            0         1.06         0.94            0            0       -99999        99999;
          134            1          200           50            0            0            1       1.0177         6.75          230            0         1.06         0.94            0            0       -99999        99999;
          135            2           75           50            0            0            1        0.963         5.15          115            0         1.06         0.94            0            0       -99999        99999;
          136            1        123.5        -24.3            0            0            1       0.9845       -11.93          230            0         1.06         0.94            0            0       -99999        99999;
          137            1            0            0            0            0            1       0.9987        -11.4          230            0         1.06         0.94            0            0       -99999        99999;
          138            1           33         16.5            0            0            1       0.9867        -9.82          230            0         1.06         0.94            0            0       -99999        99999;
          139            1            0            0            0            0            1       0.9998       -12.55          230            0         1.06         0.94            0            0       -99999        99999;
          140            1           35           15            0            0            1        1.036         8.85          230            0         1.06         0.94            0            0       -99999        99999;
          141            1           85           24            0            0            1       0.9918         18.5          230            0         1.06         0.94            0            0       -99999        99999;
          142            1            0          0.4            0            0            1        1.041         2.91          230            0         1.06         0.94            0            0       -99999        99999;
          143            1            0            0            0         -212            1       0.9839         9.66          230            0         1.06         0.94            0            0       -99999        99999;
          144            1            0            0            0            0            1       1.0002        26.31          230            0         1.06         0.94            0            0       -99999        99999;
          145            1            0            0            0         -103            1       0.9973        30.22          230            0         1.06         0.94            0            0       -99999        99999;
          146            1        299.9         95.7            0            0            1       0.9715        -6.91          230            0         1.06         0.94            0            0       -99999        99999;
          147            1            0            0            0            0            1       1.0024         -4.8          230            0         1.06         0.94            0            0       -99999        99999;
          148            1            0            0            0            0            1       0.9879        -6.68          230            0         1.06         0.94            0            0       -99999        99999;
          149            2        481.8          205            0            0            1        0.929         0.09          115            0         1.06         0.94          205            0       -99999        99999;
          150            2        763.6        291.1            0            0            1       0.9829        -9.94          115            0         1.06         0.94            0            0       -99999        99999;
          151            1         26.5            0            0            0            1       1.0244        -6.22          115            0         1.06         0.94            0            0       -99999        99999;
          152            1        163.5           43            0           53            1       0.9837       -12.75          115            0         1.06         0.94            0            0       -99999        99999;
          153            1            0            0            0            0            1       1.0622        -2.69          115            0         1.06         0.94            0            0       -99999        99999;
          154            1          176           83            0            0            1        0.973        -7.21          115            0         1.06         0.94            0            0       -99999        99999;
          155            2            5            4            0            0            1       1.0522         4.67          115            0         1.06         0.94          228            0       -99999        99999;
          156            2           28           12            0            0            1       1.0077         0.62          115            0         1.06         0.94           84            0       -99999        99999;
          157            1        427.4        173.6            0            0            1       0.9397        -6.56          115            0         1.06         0.94            0            0       -99999        99999;
          158            1           74           29            0           45            1       0.9699        -9.37          115            0         1.06         0.94            0            0       -99999        99999;
          159            1         69.5         49.3            0            0            1       0.9793        -3.09          115            0         1.06         0.94            0            0       -99999        99999;
          160            1         73.4            0            0            0            1       1.0518        -1.33          230            0         1.06         0.94            0            0       -99999        99999;
          161            1        240.7           89            0            0            1       1.0447        -4.19          230            0         1.06         0.94            0            0       -99999        99999;
          162            1           40            4            0            0            1       0.9717         7.12          115            0         1.06         0.94            0            0       -99999        99999;
          163            1        136.8         16.6            0            0            1       1.0386        -6.85          230            0         1.06         0.94            0            0       -99999        99999;
          164            2            0            0            0            0            1       1.0522        -4.33          230            0         1.06         0.94          200            0       -99999        99999;
          165            2         59.8         24.3            0            0            1        1.065         2.17          230            0         1.06         0.94         1200            0       -99999        99999;
          166            2         59.8         24.3            0            0            1        1.065          1.4          230            0         1.06         0.94         1200            0       -99999        99999;
          167            1        182.6         43.6            0            0            1       1.0533        -0.72          230            0         1.06         0.94            0            0       -99999        99999;
          168            1            7            2            0            0            1       0.9975       -25.84           66            0         1.06         0.94            0            0       -99999        99999;
          169            2            0            0            0         -150            1       1.0551       -20.62          345            0         1.06         0.94          475            0       -99999        99999;
          170            2          489           53            0            0            1       1.0435        12.25          230            0         1.06         0.94         1973            0       -99999        99999;
          171            1          800           72            0            0            1       0.9374       -11.18          230            0         1.06         0.94            0            0       -99999        99999;
          172            1            0            0            0            0            1       0.9897       -26.09           66            0         1.06         0.94            0            0       -99999        99999;
          173            1            0            0            0            0            1       1.0489       -19.21          345            0         1.06         0.94            0            0       -99999        99999;
          174            1            0            0            0            0            1       1.0357       -20.79          345            0         1.06         0.94            0            0       -99999        99999;
          175            1           10            3            0            0            1       0.9695       -25.32          115            0         1.06         0.94            0            0       -99999        99999;
          176            1           43           14            0            0            1       0.9907       -23.72          115            0         1.06         0.94            0            0       -99999        99999;
          177            2           64           21            0            0            1        1.015       -20.58          115            0         1.06         0.94          424            0       -99999        99999;
          178            1           35           12            0            0            1       0.9528       -26.05          115            0         1.06         0.94            0            0       -99999        99999;
          179            1           27           12            0            0            1        0.955       -25.93          115            0         1.06         0.94            0            0       -99999        99999;
          180            1           41           14            0            0            1       0.9692       -27.49           66            0         1.06         0.94            0            0       -99999        99999;
          181            1           38           13            0            0            1       0.9908       -25.33           66            0         1.06         0.94            0            0       -99999        99999;
          182            1           42           14            0            0            1       1.0033       -22.35          115            0         1.06         0.94            0            0       -99999        99999;
          183            1           72           24            0            0            1       0.9718        -25.7           66            0         1.06         0.94            0            0       -99999        99999;
          184            1            0           -5            0            0            1       0.9838       -26.07           66            0         1.06         0.94            0            0       -99999        99999;
          185            1           12            2            0            0            1       0.9992       -27.41           66            0         1.06         0.94            0            0       -99999        99999;
          186            1          -21        -14.2            0            0            1       1.0137       -27.44           66            0         1.06         0.94            0            0       -99999        99999;
          187            1            7            2            0            0            1       0.9929       -26.28           66            0         1.06         0.94            0            0       -99999        99999;
          188            1           38           13            0            0            1       0.9999       -25.66           66            0         1.06         0.94            0            0       -99999        99999;
          189            1            0            0            0            0            1       0.9788       -24.22          115            0         1.06         0.94            0            0       -99999        99999;
          190            1           96            7            0            0            1       1.0017       -23.31          115            0         1.06         0.94            0            0       -99999        99999;
          191            1            0            0            0            0            1       1.0132       -22.51          138            0         1.06         0.94            0            0       -99999        99999;
          192            2            0            0            0            0            1         1.01       -11.67         16.5            0         1.06         0.94          272            0       -99999        99999;
          193            1           22           16            0            0            1       0.9919       -17.53          138            0         1.06         0.94            0            0       -99999        99999;
          194            1           47           26            0            0            1       0.9866       -20.23          138            0         1.06         0.94            0            0       -99999        99999;
          195            1          176          105            0            0            1       0.9751       -22.53          138            0         1.06         0.94            0            0       -99999        99999;
          196            1          100           75            0            0            1       1.0215        -22.2          138            0         1.06         0.94            0            0       -99999        99999;
          197            1          131           96            0            0            1       1.0075       -22.63          138            0         1.06         0.94            0            0       -99999        99999;
          198            1            0            0            0            0            1       1.0554       -21.15          345            0         1.06         0.94            0            0       -99999        99999;
          199            2          285          100            0            0            1        1.008       -21.73          138            0         1.06         0.94          100            0       -99999        99999;
          200            2          171           70            0            0            1            1       -22.49          138            0         1.06         0.94          450            0       -99999        99999;
...
        %%%%%%%%% IEEE-118
          301   	     2           51           27            0            0            2        0.955        10.67          138            0         1.06        0.94             0            0       -99999        99999;
          302   	     1           20            9            0            0            2        0.971        11.22          138            0       	1.06        0.94             0            0       -99999        99999;
          303   	     1           39           10            0            0   	      2        0.968        11.56          138            0     	1.06        0.94             0            0       -99999        99999;
          304   	     2           30           12            0            0   	      2        0.998        15.28          138            0     	1.06    	0.94             0            0       -99999        99999;
          305   	     1            0            0            0          -40 	          2        1.002        15.73          138  	      0     	1.06    	0.94             0            0       -99999        99999;
          306   	     2           52           22            0            0            2         0.99           13          138            0     	1.06    	0.94             0            0       -99999        99999;
          307   	     1           19            2            0            0            2        0.989        12.56          138            0     	1.06    	0.94             0            0       -99999        99999;
          308   	     2            0  	       0            0            0            2        1.015        20.77          345            0     	1.06    	0.94             0            0       -99999        99999;
          309   	     1            0            0            0            0            2        1.043        28.02          345 	          0     	1.06    	0.94             0            0       -99999        99999;
          310  	         2            0            0            0            0            2         1.05        35.61          345 	          1     	1.06    	0.94           450            0       -99999        99999;     
          311            1           70           23            0       	 0            2        0.985        12.72          138            0         1.06        0.94             0            0       -99999        99999;
          312            2           47           10         	0   	     0            2         0.99         12.2          138            0         1.06        0.94            85            0       -99999        99999;
          313            1           34           16        	0   	     0            2        0.968        11.35          138            0         1.06        0.94             0            0       -99999        99999;
          314            1           14            1        	0   	     0            2        0.984        11.5           138            0         1.06        0.94             0            0       -99999        99999;
          315            2           90           30        	0   	     0            2         0.97        11.23          138            0         1.06        0.94             0            0       -99999        99999;
          316            1           25           10        	0   	     0            2        0.984        11.91          138            0         1.06        0.94             0            0       -99999        99999;
          317            1      	 11            3        	0   	     0            2        0.995        13.74          138            0         1.06        0.94             0            0       -99999        99999;
          318            2      	 60           34        	0   	     0            2        0.973        11.53          138            0         1.06        0.94             0            0       -99999        99999;
          319            2      	 45           25        	0   	     0            2        0.963        11.05          138            0         1.06        0.94             0            0       -99999        99999;
          320            1      	 18            3        	0   	     0            2        0.958        11.93          138            0         1.06        0.94             0            0       -99999        99999;
          321            1           14            8            0            0            2        0.959        13.52          138            0         1.06        0.94             0            0       -99999        99999;
          322            1           10            5            0	         0            2         0.97        16.08          138            0         1.06        0.94             0            0       -99999        99999;
          323            1            7            3            0	         0            2            1           21          138            0         1.06        0.94             0            0       -99999        99999;
          324            2            0            0            0            0            2        0.992        20.89          138            0         1.06        0.94             0            0       -99999        99999;
          325            2            0            0            0            0            2         1.05        27.93          138            1         1.06        0.94           220            0       -99999        99999;
          326            2            0            0            0            0            2        1.015        29.71          345      	  1         1.06        0.94           314            0       -99999        99999;
          327            2           62           13            0            0            2        0.968        15.35          138       	  0         1.06        0.94             0            0       -99999        99999;
          328            1           17            7            0            0            2        0.962        13.62          138       	  0         1.06        0.94             0            0       -99999        99999;
          329            1           24            4            0            0            2        0.963        12.63          138      	  0         1.06        0.94             0            0       -99999        99999;
          330            1            0            0            0            0            2        0.968	    18.79          345            0   	    1.06        0.94             0            0       -99999        99999;
          331            2           43           27            0            0            2        0.967	    12.75          138            0         1.06        0.94             7            0       -99999        99999;
          332            2           59           23            0            0            2        0.964	     14.8          138            0         1.06        0.94             0            0       -99999        99999;
          333            1           23            9            0            0            2        0.972	    10.63          138            0         1.06        0.94             0            0       -99999        99999;
          334            2           59           26            0           14            2        0.986	     11.3          138            0         1.06        0.94             0            0       -99999        99999;
          335            1           33            9            0            0            2        0.981	    10.87          138            0         1.06        0.94             0            0       -99999        99999;
          336            2           31           17            0            0            2         0.98	    10.87          138            0         1.06        0.94             0            0       -99999        99999;
          337            1            0            0            0          -25            2        0.992	    11.77          138            0         1.06        0.94             0            0       -99999        99999;
          338            1            0            0            0            0            2        0.962	    16.91          345            0         1.06        0.94             0            0       -99999        99999;
          339            1           27           11            0            0            2         0.97	     8.41          138            0         1.06        0.94             0            0       -99999        99999;
          340            2           20           23            0            0            2         0.97	     7.35          138            0         1.06        0.94             0            0       -99999        99999;
          341            1           37           10            0            0            2        0.967	     6.92          138            0         1.06        0.94             0            0       -99999        99999;
          342            2           37           23            0            0            2        0.985	     8.53          138            0         1.06        0.94             0            0       -99999        99999;
          343            1           18            7            0            0            2        0.978	     11.28         138            0         1.06        0.94             0            0       -99999        99999;
          344            1           16            8            0           10            2        0.985	     13.82         138            0         1.06        0.94             0            0       -99999        99999;
          345            1           53           22            0           10            2        0.987	     15.67         138            0         1.06        0.94             0            0       -99999        99999;
          346            2           28           10            0           10            2        1.005	     18.49         138            0         1.06        0.94            19            0       -99999        99999;
          347            1           34            0            0            0            2        1.017	     20.73         138            0         1.06        0.94             0            0       -99999        99999;
          348            1           20           11            0           15            2        1.021	     19.93         138            0         1.06        0.94             0            0       -99999        99999;
          349            2           87           30            0            0            2        1.025	     20.94         138            0         1.06        0.94           204            0       -99999        99999;
          350            1           17            4            0            0            2        1.001          18.9         138            0         1.06        0.94            0             0       -99999        99999;
          351            1           17            8            0            0            2        0.967         16.28         138            0         1.06        0.94            0             0       -99999        99999;
          352            1           18            5            0            0            2        0.957         15.32         138            0         1.06        0.94            0             0       -99999        99999;
          353            1           23           11            0            0            2        0.946         14.35         138            0         1.06        0.94            0             0       -99999        99999;
          354            2          113           32            0            0            2        0.955         15.26         138            0         1.06        0.94           48             0       -99999        99999;
          355            2           63           22            0            0            2        0.952         14.97         138            0         1.06        0.94            0             0       -99999        99999;
          356            2           84           18            0            0            2        0.954         15.16         138            0         1.06        0.94            0             0       -99999        99999;
          357            1           12            3            0            0            2        0.971         16.36         138            0         1.06        0.94            0             0       -99999        99999;
          358            1           12            3            0            0            2        0.959         15.51         138            0         1.06        0.94            0             0       -99999        99999;
          359            2          277          113            0            0            2        0.985         19.37         138            0         1.06        0.94          155             0       -99999        99999;  
          360            1           78            3            0            0            2	       0.993	     23.15         138            0         1.06        0.94            0             0       -99999        99999;
          361          	 2            0            0            0            0   	      2	       0.995	     24.04         138            0         1.06        0.94          160             0       -99999        99999;
          362        	 2           77           14            0            0   	      2	       0.998	     23.43         138 	          0         1.06        0.94            0             0       -99999        99999;
          363        	 1            0            0            0            0   	      2	       0.969	     22.75	       345 	          0         1.06        0.94            0             0       -99999        99999;
          364        	 1            0            0            0            0   	      2	       0.984	     24.52	       345 	          0         1.06        0.94            0             0       -99999        99999;
          365       	 2            0            0            0            0   	      2	       1.005	     27.65	       345 	          0         1.06        0.94          391 	          0       -99999        99999;
          366       	 2           39           18            0            0   	      2	        1.05	     27.48	       138 	          0         1.06        0.94          392 	          0       -99999        99999;
...